
     RDKit          2D

  0  0  0  0  0  0  0  0  0  0999 V3000
M  V30 BEGIN CTAB
M  V30 COUNTS 12 12 0 0 0
M  V30 BEGIN ATOM
M  V30 1 N -0.323110 -2.062764 0.000000 0
M  V30 2 C 0.975330 -1.311841 0.000000 0
M  V30 3 C 0.974130 0.188206 0.000000 0
M  V30 4 C -0.325510 0.937029 0.000000 0
M  V30 5 C -0.326710 2.437376 0.000000 0
M  V30 6 C -1.626351 3.186199 0.000000 0
M  V30 7 C -2.924791 2.435276 0.000000 0
M  V30 8 C -2.923591 0.935229 0.000000 0
M  V30 9 C -1.623950 0.186406 0.000000 0
M  V30 10 C 2.274971 -2.060664 0.000000 0
M  V30 11 O 3.573411 -1.309741 0.000000 0
M  V30 12 O 2.276171 -3.560711 0.000000 0
M  V30 END ATOM
M  V30 BEGIN BOND
M  V30 1 1 1 2
M  V30 2 1 2 3
M  V30 3 1 3 4
M  V30 4 2 4 5
M  V30 5 1 5 6
M  V30 6 2 6 7
M  V30 7 1 7 8
M  V30 8 2 8 9
M  V30 9 1 2 10
M  V30 10 2 10 11
M  V30 11 1 10 12
M  V30 12 1 9 4
M  V30 END BOND
M  V30 END CTAB
M  END
