
     RDKit          2D

  0  0  0  0  0  0  0  0  0  0999 V3000
M  V30 BEGIN CTAB
M  V30 COUNTS 8 8 0 0 0
M  V30 BEGIN ATOM
M  V30 1 C -1.949728 -1.498521 0.000000 0
M  V30 2 C -0.650109 -0.749411 0.000000 0
M  V30 3 C 0.648309 -1.500621 0.000000 0
M  V30 4 C 1.947928 -0.751511 0.000000 0
M  V30 5 C 1.949128 0.748511 0.000000 0
M  V30 6 C 0.650709 1.499421 0.000000 0
M  V30 7 C -0.648909 0.750611 0.000000 0
M  V30 8 O -1.947328 1.501522 0.000000 0
M  V30 END ATOM
M  V30 BEGIN BOND
M  V30 1 1 2 1 CFG=1
M  V30 2 1 2 3
M  V30 3 1 3 4
M  V30 4 1 4 5
M  V30 5 1 5 6
M  V30 6 1 6 7
M  V30 7 2 7 8
M  V30 8 1 7 2
M  V30 END BOND
M  V30 END CTAB
M  END
