
     RDKit          2D

  0  0  0  0  0  0  0  0  0  0999 V3000
M  V30 BEGIN CTAB
M  V30 COUNTS 6 5 0 0 0
M  V30 BEGIN ATOM
M  V30 1 C 0.000000 0.000000 0.000000 0
M  V30 2 C 1.299038 0.750000 0.000000 0
M  V30 3 Br 1.299038 2.250000 0.000000 0
M  V30 4 C 2.598076 -0.000000 0.000000 0
M  V30 5 C 3.897114 0.750000 0.000000 0
M  V30 6 Br 5.196152 -0.000000 0.000000 0
M  V30 END ATOM
M  V30 BEGIN BOND
M  V30 1 1 2 1 CFG=3
M  V30 2 1 2 3
M  V30 3 1 2 4
M  V30 4 1 4 5
M  V30 5 1 5 6
M  V30 END BOND
M  V30 END CTAB
M  END
