
     RDKit          2D

  0  0  0  0  0  0  0  0  0  0999 V3000
M  V30 BEGIN CTAB
M  V30 COUNTS 11 11 0 0 0
M  V30 BEGIN ATOM
M  V30 1 C -3.307138 -0.679237 0.000000 0
M  V30 2 C -2.008720 -1.430148 0.000000 0
M  V30 3 C -2.009920 -2.930169 0.000000 0
M  V30 4 C -0.709101 -0.681337 0.000000 0
M  V30 5 C 0.589318 -1.432248 0.000000 0
M  V30 6 C 1.888936 -0.683437 0.000000 0
M  V30 7 C 1.890136 0.816584 0.000000 0
M  V30 8 C 3.189755 1.565695 0.000000 0
M  V30 9 C 0.591718 1.567795 0.000000 0
M  V30 10 O 0.592918 3.067817 0.000000 0
M  V30 11 C -0.707901 0.818684 0.000000 0
M  V30 END ATOM
M  V30 BEGIN BOND
M  V30 1 2 1 2
M  V30 2 1 2 3
M  V30 3 1 4 2 CFG=3
M  V30 4 1 4 5
M  V30 5 1 5 6
M  V30 6 2 6 7
M  V30 7 1 7 8
M  V30 8 1 7 9
M  V30 9 2 9 10
M  V30 10 1 9 11
M  V30 11 1 11 4
M  V30 END BOND
M  V30 END CTAB
M  END
