
     RDKit          2D

  0  0  0  0  0  0  0  0  0  0999 V3000
M  V30 BEGIN CTAB
M  V30 COUNTS 8 7 0 0 0
M  V30 BEGIN ATOM
M  V30 1 C 0.000000 0.000000 0.000000 0
M  V30 2 C 1.299038 0.750000 0.000000 0
M  V30 3 C 2.598076 -0.000000 0.000000 0
M  V30 4 C 1.299038 2.250000 0.000000 0
M  V30 5 C 2.598076 3.000000 0.000000 0
M  V30 6 C 2.598076 4.500000 0.000000 0
M  V30 7 C -0.000000 3.000000 0.000000 0
M  V30 8 C -0.000000 4.500000 0.000000 0
M  V30 END ATOM
M  V30 BEGIN BOND
M  V30 1 1 1 2
M  V30 2 1 2 3
M  V30 3 1 2 4
M  V30 4 1 4 5
M  V30 5 1 5 6
M  V30 6 1 4 7
M  V30 7 1 7 8
M  V30 END BOND
M  V30 END CTAB
M  END
