
     RDKit          2D

  0  0  0  0  0  0  0  0  0  0999 V3000
M  V30 BEGIN CTAB
M  V30 COUNTS 13 13 0 0 0
M  V30 BEGIN ATOM
M  V30 1 C -3.898644 -1.900836 0.000000 0
M  V30 2 C -2.599004 -1.151713 0.000000 0
M  V30 3 C -1.300563 -1.902936 0.000000 0
M  V30 4 C -0.000923 -1.153813 0.000000 0
M  V30 5 C 0.000277 0.346234 0.000000 0
M  V30 6 C -1.298163 1.097157 0.000000 0
M  V30 7 C -1.296963 2.597204 0.000000 0
M  V30 8 C 0.002677 3.346027 0.000000 0
M  V30 9 C 1.301117 2.595404 0.000000 0
M  V30 10 C 1.299917 1.095057 0.000000 0
M  V30 11 C 1.297517 -1.905036 0.000000 0
M  V30 12 C 2.597157 -1.155913 0.000000 0
M  V30 13 C 3.895598 -1.906836 0.000000 0
M  V30 END ATOM
M  V30 BEGIN BOND
M  V30 1 1 1 2
M  V30 2 1 2 3
M  V30 3 1 3 4
M  V30 4 1 4 5
M  V30 5 1 5 6
M  V30 6 1 6 7
M  V30 7 1 7 8
M  V30 8 1 8 9
M  V30 9 1 9 10
M  V30 10 1 4 11
M  V30 11 1 11 12
M  V30 12 1 12 13
M  V30 13 1 10 5
M  V30 END BOND
M  V30 END CTAB
M  END
