
     RDKit          2D

  0  0  0  0  0  0  0  0  0  0999 V3000
M  V30 BEGIN CTAB
M  V30 COUNTS 14 13 0 0 0
M  V30 BEGIN ATOM
M  V30 1 C 0.000000 0.000000 0.000000 0
M  V30 2 C 1.299038 0.750000 0.000000 0
M  V30 3 C 2.598076 -0.000000 0.000000 0
M  V30 4 C 1.299038 2.250000 0.000000 0
M  V30 5 C 2.598076 3.000000 0.000000 0
M  V30 6 C 2.598076 4.500000 0.000000 0
M  V30 7 C 3.897114 5.250000 0.000000 0
M  V30 8 C 1.299038 5.250000 0.000000 0
M  V30 9 C 1.299038 6.750000 0.000000 0
M  V30 10 C -0.000000 7.500000 0.000000 0
M  V30 11 C 2.598076 7.500000 0.000000 0
M  V30 12 C 2.598076 9.000000 0.000000 0
M  V30 13 C 3.897114 9.750000 0.000000 0
M  V30 14 C 1.299038 9.750000 0.000000 0
M  V30 END ATOM
M  V30 BEGIN BOND
M  V30 1 1 1 2
M  V30 2 1 2 3
M  V30 3 1 2 4
M  V30 4 1 4 5
M  V30 5 1 5 6
M  V30 6 1 6 7
M  V30 7 1 6 8
M  V30 8 1 8 9
M  V30 9 1 9 10
M  V30 10 1 9 11
M  V30 11 1 11 12
M  V30 12 1 12 13
M  V30 13 1 12 14
M  V30 END BOND
M  V30 END CTAB
M  END
