
     RDKit          2D

  0  0  0  0  0  0  0  0  0  0999 V3000
M  V30 BEGIN CTAB
M  V30 COUNTS 4 3 0 0 0
M  V30 BEGIN ATOM
M  V30 1 O 0.000000 1.500000 0.000000 1 CHG=-1
M  V30 2 C 0.000000 0.000000 0.000000 2
M  V30 3 O 1.299038 -0.750000 0.000000 3
M  V30 4 C -1.299038 -0.750000 0.000000 4
M  V30 END ATOM
M  V30 BEGIN BOND
M  V30 1 1 1 2
M  V30 2 2 2 3
M  V30 3 1 2 4
M  V30 END BOND
M  V30 END CTAB
M  END
