
     RDKit          2D

  0  0  0  0  0  0  0  0  0  0999 V3000
M  V30 BEGIN CTAB
M  V30 COUNTS 8 8 0 0 0
M  V30 BEGIN ATOM
M  V30 1 O 2.636748 -0.111263 0.000000 0
M  V30 2 C 1.377943 0.704140 0.000000 0
M  V30 3 O 1.454743 2.202346 0.000000 0
M  V30 4 C 0.042338 0.021638 0.000000 0
M  V30 5 C -0.190463 -1.460068 0.000000 0
M  V30 6 C -1.671869 -1.696769 0.000000 0
M  V30 7 C -2.354372 -0.360864 0.000000 0
M  V30 8 N -1.295067 0.700840 0.000000 0
M  V30 END ATOM
M  V30 BEGIN BOND
M  V30 1 1 1 2
M  V30 2 2 2 3
M  V30 3 1 4 2 CFG=3
M  V30 4 1 4 5
M  V30 5 1 5 6
M  V30 6 1 6 7
M  V30 7 1 7 8
M  V30 8 1 8 4
M  V30 END BOND
M  V30 END CTAB
M  END
