
     RDKit          2D

  0  0  0  0  0  0  0  0  0  0999 V3000
M  V30 BEGIN CTAB
M  V30 COUNTS 18 18 0 0 0
M  V30 BEGIN ATOM
M  V30 1 N 0.801801 5.551965 0.000000 0
M  V30 2 C 2.102464 4.804571 0.000000 0
M  V30 3 C 2.105765 3.304382 0.000000 0
M  V30 4 C 0.808102 2.551587 0.000000 0
M  V30 5 C 0.812002 1.051699 0.000000 0
M  V30 6 C -0.485061 0.298304 0.000000 0
M  V30 7 N -0.480860 -1.201884 0.000000 0
M  V30 8 C -1.778224 -1.953779 0.000000 0
M  V30 9 O -3.078587 -1.205485 0.000000 0
M  V30 10 C -1.775823 -3.454868 0.000000 0
M  V30 11 N -2.992776 -4.334278 0.000000 0
M  V30 12 C -2.529218 -5.760658 0.000000 0
M  V30 13 C -3.413429 -6.974610 0.000000 0
M  V30 14 C -1.029329 -5.764558 0.000000 0
M  V30 15 C -0.565471 -4.336679 0.000000 0
M  V30 16 C 3.400128 5.557365 0.000000 0
M  V30 17 O 4.701091 4.809672 0.000000 0
M  V30 18 O 3.397427 7.057254 0.000000 0
M  V30 END ATOM
M  V30 BEGIN BOND
M  V30 1 1 2 1 CFG=3
M  V30 2 1 2 3
M  V30 3 1 3 4
M  V30 4 1 4 5
M  V30 5 1 5 6
M  V30 6 1 6 7
M  V30 7 1 7 8
M  V30 8 2 8 9
M  V30 9 1 10 8 CFG=3
M  V30 10 1 10 11
M  V30 11 2 11 12
M  V30 12 1 12 13
M  V30 13 1 12 14
M  V30 14 1 14 15
M  V30 15 1 2 16
M  V30 16 2 16 17
M  V30 17 1 16 18
M  V30 18 1 15 10
M  V30 END BOND
M  V30 END CTAB
M  END
