
     RDKit          2D

  0  0  0  0  0  0  0  0  0  0999 V3000
M  V30 BEGIN CTAB
M  V30 COUNTS 3 2 0 0 0
M  V30 BEGIN ATOM
M  V30 1 Be 0.000000 0.000000 0.000000 0 VAL=2
M  V30 2 Cl 0.000000 1.500000 0.000000 0
M  V30 3 Cl -0.000000 -1.500000 0.000000 0
M  V30 END ATOM
M  V30 BEGIN BOND
M  V30 1 1 1 2
M  V30 2 1 1 3
M  V30 END BOND
M  V30 END CTAB
M  END
