
     RDKit          2D

  0  0  0  0  0  0  0  0  0  0999 V3000
M  V30 BEGIN CTAB
M  V30 COUNTS 6 5 0 0 0
M  V30 BEGIN ATOM
M  V30 1 Cl 1.426585 -0.463525 0.000000 0
M  V30 2 P 0.000000 0.000000 0.000000 0
M  V30 3 Cl 0.881678 1.213525 0.000000 0
M  V30 4 Cl -1.426585 -0.463525 0.000000 0
M  V30 5 Cl -0.881678 1.213525 0.000000 0
M  V30 6 Cl -0.000000 -1.500000 0.000000 0
M  V30 END ATOM
M  V30 BEGIN BOND
M  V30 1 1 1 2
M  V30 2 1 2 3
M  V30 3 1 2 4
M  V30 4 1 2 5
M  V30 5 1 2 6
M  V30 END BOND
M  V30 END CTAB
M  END
