
     RDKit          2D

  0  0  0  0  0  0  0  0  0  0999 V3000
M  V30 BEGIN CTAB
M  V30 COUNTS 6 5 0 0 0
M  V30 BEGIN ATOM
M  V30 1 F 0.000000 0.000000 0.000000 0
M  V30 2 I 1.299038 0.750000 0.000000 0
M  V30 3 F 1.610906 -0.717221 0.000000 0
M  V30 4 F 1.909143 2.120318 0.000000 0
M  V30 5 F 2.790821 0.593207 0.000000 0
M  V30 6 F 0.184321 1.753696 0.000000 0
M  V30 END ATOM
M  V30 BEGIN BOND
M  V30 1 1 1 2
M  V30 2 1 2 3
M  V30 3 1 2 4
M  V30 4 1 2 5
M  V30 5 1 2 6
M  V30 END BOND
M  V30 END CTAB
M  END
