
     RDKit          2D

  0  0  0  0  0  0  0  0  0  0999 V3000
M  V30 BEGIN CTAB
M  V30 COUNTS 7 7 0 0 0
M  V30 BEGIN ATOM
M  V30 1 C -2.227918 -1.284018 0.000000 0
M  V30 2 C -0.928299 -0.534908 0.000000 0
M  V30 3 C -0.927099 0.965114 0.000000 0
M  V30 4 C 0.372520 1.713925 0.000000 0
M  V30 5 C 1.670938 0.963014 0.000000 0
M  V30 6 C 1.669738 -0.537008 0.000000 0
M  V30 7 C 0.370120 -1.286118 0.000000 0
M  V30 END ATOM
M  V30 BEGIN BOND
M  V30 1 1 1 2
M  V30 2 1 2 3
M  V30 3 1 3 4
M  V30 4 1 4 5
M  V30 5 1 5 6
M  V30 6 1 6 7
M  V30 7 1 7 2
M  V30 END BOND
M  V30 END CTAB
M  END
