
     RDKit          2D

  0  0  0  0  0  0  0  0  0  0999 V3000
M  V30 BEGIN CTAB
M  V30 COUNTS 12 11 0 0 0
M  V30 BEGIN ATOM
M  V30 1 N -1.299038 2.250000 0.000000 0
M  V30 2 C -1.299038 0.750000 0.000000 0
M  V30 3 C 0.000000 0.000000 0.000000 0
M  V30 4 C 1.299038 0.750000 0.000000 0
M  V30 5 C 2.598076 -0.000000 0.000000 0
M  V30 6 N 3.897114 0.750000 0.000000 0
M  V30 7 C 5.196152 -0.000000 0.000000 0
M  V30 8 N 6.495191 0.750000 0.000000 0
M  V30 9 N 5.196152 -1.500000 0.000000 0
M  V30 10 C -2.598076 0.000000 0.000000 0
M  V30 11 O -2.598076 -1.500000 0.000000 0
M  V30 12 O -3.897114 0.750000 0.000000 0
M  V30 END ATOM
M  V30 BEGIN BOND
M  V30 1 1 2 1 CFG=1
M  V30 2 1 2 3
M  V30 3 1 3 4
M  V30 4 1 4 5
M  V30 5 1 5 6
M  V30 6 2 6 7
M  V30 7 1 7 8
M  V30 8 1 7 9
M  V30 9 1 2 10
M  V30 10 2 10 11
M  V30 11 1 10 12
M  V30 END BOND
M  V30 END CTAB
M  END
