
     RDKit          2D

  0  0  0  0  0  0  0  0  0  0999 V3000
M  V30 BEGIN CTAB
M  V30 COUNTS 11 11 0 0 0
M  V30 BEGIN ATOM
M  V30 1 N -0.567981 -1.855606 0.000000 0
M  V30 2 C 0.734017 -1.111007 0.000000 0
M  V30 3 C 0.740017 0.388690 0.000000 0
M  V30 4 C -0.555981 1.144089 0.000000 0
M  V30 5 C -1.928778 0.538990 0.000000 0
M  V30 6 N -2.927776 1.657988 0.000000 0
M  V30 7 C -2.172978 2.953985 0.000000 0
M  V30 8 N -0.706881 2.636286 0.000000 0
M  V30 9 C 2.030015 -1.866106 0.000000 0
M  V30 10 O 3.332312 -1.121507 0.000000 0
M  V30 11 O 2.024014 -3.365803 0.000000 0
M  V30 END ATOM
M  V30 BEGIN BOND
M  V30 1 1 2 1 CFG=1
M  V30 2 1 2 3
M  V30 3 1 3 4
M  V30 4 2 4 5
M  V30 5 1 5 6
M  V30 6 1 6 7
M  V30 7 2 7 8
M  V30 8 1 2 9
M  V30 9 2 9 10
M  V30 10 1 9 11
M  V30 11 1 8 4
M  V30 END BOND
M  V30 END CTAB
M  END
