
     RDKit          2D

  0  0  0  0  0  0  0  0  0  0999 V3000
M  V30 BEGIN CTAB
M  V30 COUNTS 7 7 0 0 0
M  V30 BEGIN ATOM
M  V30 1 C -2.223822 -1.549453 0.000000 0
M  V30 2 C -0.923817 -0.800893 0.000000 0
M  V30 3 C 0.445793 -1.412642 0.000000 0
M  V30 4 C 1.450874 -0.298953 0.000000 0
M  V30 5 C 0.702314 1.000752 0.000000 0
M  V30 6 C 1.314063 2.370662 0.000000 0
M  V30 7 C -0.765404 0.690527 0.000000 0
M  V30 END ATOM
M  V30 BEGIN BOND
M  V30 1 1 2 1 CFG=3
M  V30 2 1 2 3
M  V30 3 1 3 4
M  V30 4 1 4 5
M  V30 5 1 5 6 CFG=3
M  V30 6 1 5 7
M  V30 7 1 7 2
M  V30 END BOND
M  V30 END CTAB
M  END
