
     RDKit          2D

  0  0  0  0  0  0  0  0  0  0999 V3000
M  V30 BEGIN CTAB
M  V30 COUNTS 10 11 0 0 0
M  V30 BEGIN ATOM
M  V30 1 C 2.568042 -0.757098 0.000000 0
M  V30 2 C 1.140552 -1.216727 0.000000 0
M  V30 3 C 0.262096 -0.000750 0.000000 0
M  V30 4 C 1.147152 1.210426 0.000000 0
M  V30 5 C 2.572242 0.742697 0.000000 0
M  V30 6 C -0.484350 1.300432 0.000000 0
M  V30 7 C -1.984445 1.304632 0.000000 0
M  V30 8 C -2.738092 0.007650 0.000000 0
M  V30 9 C -1.991645 -1.293531 0.000000 0
M  V30 10 C -0.491551 -1.297732 0.000000 0
M  V30 END ATOM
M  V30 BEGIN BOND
M  V30 1 1 1 2
M  V30 2 1 2 3
M  V30 3 1 3 4
M  V30 4 1 4 5
M  V30 5 1 3 6
M  V30 6 1 6 7
M  V30 7 1 7 8
M  V30 8 1 8 9
M  V30 9 1 9 10
M  V30 10 1 5 1
M  V30 11 1 10 3
M  V30 END BOND
M  V30 END CTAB
M  END
