
     RDKit          2D

  0  0  0  0  0  0  0  0  0  0999 V3000
M  V30 BEGIN CTAB
M  V30 COUNTS 10 12 0 0 0
M  V30 BEGIN ATOM
M  V30 1 C 1.364487 0.000000 0.000000 0
M  V30 2 C 0.682244 -1.181681 0.000000 0
M  V30 3 C -0.682244 -1.181681 0.000000 0
M  V30 4 C -1.364487 0.000000 0.000000 0
M  V30 5 C -0.682244 1.181681 0.000000 0
M  V30 6 C 0.682244 1.181681 0.000000 0
M  V30 7 C 2.046731 1.181681 0.000000 0
M  V30 8 C 2.728975 -0.000000 0.000000 0
M  V30 9 C 2.046731 -1.181681 0.000000 0
M  V30 10 C 1.547294 -0.682244 0.000000 0
M  V30 END ATOM
M  V30 BEGIN BOND
M  V30 1 1 1 2
M  V30 2 1 2 3
M  V30 3 1 3 4
M  V30 4 1 4 5
M  V30 5 1 5 6
M  V30 6 1 6 7
M  V30 7 1 7 8
M  V30 8 1 8 9
M  V30 9 1 8 10
M  V30 10 1 6 1
M  V30 11 1 9 2
M  V30 12 1 10 4
M  V30 END BOND
M  V30 END CTAB
M  END
