
     RDKit          2D

  0  0  0  0  0  0  0  0  0  0999 V3000
M  V30 BEGIN CTAB
M  V30 COUNTS 5 4 0 0 0
M  V30 BEGIN ATOM
M  V30 1 F 0.000000 0.000000 0.000000 0
M  V30 2 Xe 1.299038 0.750000 0.000000 0 VAL=4
M  V30 3 F 2.598076 1.500000 0.000000 0
M  V30 4 F 2.049038 -0.549038 0.000000 0
M  V30 5 F 0.549038 2.049038 0.000000 0
M  V30 END ATOM
M  V30 BEGIN BOND
M  V30 1 1 1 2
M  V30 2 1 2 3
M  V30 3 1 2 4
M  V30 4 1 2 5
M  V30 END BOND
M  V30 END CTAB
M  END
