
     RDKit          2D

  0  0  0  0  0  0  0  0  0  0999 V3000
M  V30 BEGIN CTAB
M  V30 COUNTS 3 2 0 0 0
M  V30 BEGIN ATOM
M  V30 1 O 0.000000 0.000000 0.000000 0 CHG=-1
M  V30 2 O 1.299038 0.750000 0.000000 0 CHG=1
M  V30 3 O 2.598076 -0.000000 0.000000 0
M  V30 END ATOM
M  V30 BEGIN BOND
M  V30 1 1 1 2
M  V30 2 2 2 3
M  V30 END BOND
M  V30 END CTAB
M  END
