
     RDKit          2D

  0  0  0  0  0  0  0  0  0  0999 V3000
M  V30 BEGIN CTAB
M  V30 COUNTS 15 16 0 0 0
M  V30 BEGIN ATOM
M  V30 1 N 0.470032 -1.802006 0.000000 0
M  V30 2 C 1.770865 -1.054987 0.000000 0
M  V30 3 C 1.774465 0.445051 0.000000 0
M  V30 4 C 0.477232 1.198071 0.000000 0
M  V30 5 C 0.323328 2.690009 0.000000 0
M  V30 6 N -1.142809 3.005617 0.000000 0
M  V30 7 C -1.895828 1.708084 0.000000 0
M  V30 8 C -3.363766 1.399376 0.000000 0
M  V30 9 C -3.830578 -0.025961 0.000000 0
M  V30 10 C -2.829152 -1.143189 0.000000 0
M  V30 11 C -1.361515 -0.834481 0.000000 0
M  V30 12 C -0.894703 0.591155 0.000000 0
M  V30 13 C 3.068398 -1.808006 0.000000 0
M  V30 14 O 4.369232 -1.060687 0.000000 0
M  V30 15 O 3.064798 -3.308044 0.000000 0
M  V30 END ATOM
M  V30 BEGIN BOND
M  V30 1 1 2 1 CFG=1
M  V30 2 1 2 3
M  V30 3 1 3 4
M  V30 4 2 4 5
M  V30 5 1 5 6
M  V30 6 1 6 7
M  V30 7 2 7 8
M  V30 8 1 8 9
M  V30 9 2 9 10
M  V30 10 1 10 11
M  V30 11 2 11 12
M  V30 12 1 2 13
M  V30 13 2 13 14
M  V30 14 1 13 15
M  V30 15 1 12 4
M  V30 16 1 12 7
M  V30 END BOND
M  V30 END CTAB
M  END
