
     RDKit          2D

  0  0  0  0  0  0  0  0  0  0999 V3000
M  V30 BEGIN CTAB
M  V30 COUNTS 13 13 0 0 0
M  V30 BEGIN ATOM
M  V30 1 N 0.001846 -2.307695 0.000000 0
M  V30 2 C 1.300286 -1.556771 0.000000 0
M  V30 3 C 1.299086 -0.056725 0.000000 0
M  V30 4 C -0.000554 0.692098 0.000000 0
M  V30 5 C -0.001754 2.192445 0.000000 0
M  V30 6 C -1.301394 2.941268 0.000000 0
M  V30 7 C -2.599835 2.190345 0.000000 0
M  V30 8 O -3.899475 2.939168 0.000000 0
M  V30 9 C -2.598634 0.690298 0.000000 0
M  V30 10 C -1.298994 -0.058525 0.000000 0
M  V30 11 C 2.599927 -2.305595 0.000000 0
M  V30 12 O 3.898367 -1.554671 0.000000 0
M  V30 13 O 2.601127 -3.805641 0.000000 0
M  V30 END ATOM
M  V30 BEGIN BOND
M  V30 1 1 2 1 CFG=1
M  V30 2 1 2 3
M  V30 3 1 3 4
M  V30 4 1 4 5
M  V30 5 2 5 6
M  V30 6 1 6 7
M  V30 7 1 7 8
M  V30 8 2 7 9
M  V30 9 1 9 10
M  V30 10 1 2 11
M  V30 11 2 11 12
M  V30 12 1 11 13
M  V30 13 2 10 4
M  V30 END BOND
M  V30 END CTAB
M  END
